[General]
network = flora.simulations.LoRaNetworkTest
sim-time-limit = 400min           # 400 minutes for multigw-1gw
simtime-resolution = -11
repeat = 1

# Output - will be overridden by generator
output-vector-file = ../results/scenario-08-baseline-1gw-s${runnumber}.vec
output-scalar-file = ../results/scenario-08-baseline-1gw-s${runnumber}.sca
**.vector-recording = true

# RNG
rng-class = "cMersenneTwister"

#================================================================================
# NETWORK TOPOLOGY & COUNTS
#================================================================================
**.numberOfNodes = 200
**.numberOfGateways = 1
# Area (constraint area adjusted to match CSV coordinate ranges)
**.constraintAreaMinX = -1995.42m
**.constraintAreaMinY = -1991.15m
**.constraintAreaMinZ = 0m
**.constraintAreaMaxX = 1999.14m
**.constraintAreaMaxY = 1987.97m
**.constraintAreaMaxZ = 20m

# Mobility/placement flags
**.loRaNodes[*].**.initFromDisplayString = false
**.loRaGW[*].**.initFromDisplayString = false

#================================================================================
# PHY / CHANNEL CONFIGURATION
#================================================================================
**.radio.radioMediumModule = "LoRaMedium"
**.LoRaMedium.pathLossType = "LoRaLogNormalShadowing"
**.sigma = 3.5                      # Multi-Gateway Performance with 1 gateway configuration (baseline) - sigma 3.5dB
**.minInterferenceTime = 0s
**.alohaChannelModel = false
**.energyDetection = -110dBm
**.maxTransmissionDuration = 4s
LoRaNetworkTest.**.radio.separateTransmissionParts = false
LoRaNetworkTest.**.radio.separateReceptionParts = false

#================================================================================
# GATEWAY CONFIGURATION
#================================================================================
**.LoRaGWNic.radio.iAmGateway = true
**.loRaGW[*].numUdpApps = 1
**.loRaGW[0].packetForwarder.localPort = 2000
**.loRaGW[0].packetForwarder.destPort = 1000
**.loRaGW[0].packetForwarder.destAddresses = "networkServer"
**.loRaGW[0].packetForwarder.indexNumber = 0

#================================================================================
# NETWORK SERVER CONFIGURATION - WILL BE OVERRIDDEN BY GENERATOR
#================================================================================
**.networkServer.numApps = 1
**.networkServer.app[0].typename = "NetworkServerApp"
**.networkServer.app[0].destAddresses = "loRaGW[0]"
**.networkServer.app[0].destPort = 2000
**.networkServer.app[0].localPort = 1000

# ADR Configuration - DEFAULT (will be overridden per sub-scenario)
**.networkServer.**.evaluateADRinServer = false
#================================================================================
# NODE RADIO CONFIGURATION - SCENARIO 08 DEFAULTS
#================================================================================
# Default radio parameters: SF10, 14dBm, 125kHz, CR4/5
# disabled by sub-scenario: **.loRaNodes[*].**initialLoRaSF = 10
**.loRaNodes[*].**initialLoRaBW = 125 kHz
**.loRaNodes[*].**initialLoRaCR = 4
# disabled by sub-scenario: **.loRaNodes[*].**initialLoRaTP = 14dBm
**.loRaNodes[*].**.evaluateADRinNode = false
#================================================================================
# APPLICATION CONFIGURATION - SCENARIO 08 SPECIFIC
#================================================================================
**.loRaNodes[*].numApps = 1
**.loRaNodes[*].app[0].typename = "SimpleLoRaApp"

# Packet configuration for multigw-1gw (600s intervals)
**.numberOfPacketsToSend = 0                      # infinite packets 
**.timeToFirstPacket = uniform(1s, 10s)           # spread first transmissions
**.timeToNextPacket = 600s                        # send every 10 minutes (matches ns-3)

#================================================================================
# OPTIONAL MODULES (ENERGY & DELAYS)
#================================================================================
**.ipv4Delayer.config = xmldoc("../cloudDelays.xml")
**.loRaNodes[*].LoRaNic.radio.energyConsumer.typename = "LoRaEnergyConsumer"
**.loRaNodes[*].**.energySourceModule = "^.IdealEpEnergyStorage"
**.loRaNodes[*].LoRaNic.radio.energyConsumer.configFile = xmldoc("../energyConsumptionParameters.xml")

#================================================================================
# NODE POSITIONS - LOADED FROM POSITION FILE
#================================================================================
# GATEWAY POSITIONS
#==================================================
**.loRaGW[0].**.initialX = 0.00m
**.loRaGW[0].**.initialY = 0.00m
**.loRaGW[0].**.initialZ = 15.0m

# END DEVICE POSITIONS
#==================================================
**.loRaNodes[0].**.initialX = -151.45m
**.loRaNodes[0].**.initialY = 1123.03m
**.loRaNodes[0].**.initialZ = 1.5m
**.loRaNodes[1].**.initialX = -740.85m
**.loRaNodes[1].**.initialY = 188.63m
**.loRaNodes[1].**.initialZ = 1.5m
**.loRaNodes[2].**.initialX = 600.60m
**.loRaNodes[2].**.initialY = -880.48m
**.loRaNodes[2].**.initialZ = 1.5m
**.loRaNodes[3].**.initialX = 439.37m
# Nodes 10 - 19
**.loRaNodes[3].**.initialY = -1163.74m
**.loRaNodes[3].**.initialZ = 1.5m
**.loRaNodes[4].**.initialX = 850.56m
**.loRaNodes[4].**.initialY = 821.45m
**.loRaNodes[4].**.initialZ = 1.5m
**.loRaNodes[5].**.initialX = 1307.04m
**.loRaNodes[5].**.initialY = 1136.58m
**.loRaNodes[5].**.initialZ = 1.5m
**.loRaNodes[6].**.initialX = -206.26m
**.loRaNodes[6].**.initialY = 507.62m
# Nodes 20 - 29
**.loRaNodes[6].**.initialZ = 1.5m
**.loRaNodes[7].**.initialX = 1499.14m
**.loRaNodes[7].**.initialY = 67.08m
**.loRaNodes[7].**.initialZ = 1.5m
**.loRaNodes[8].**.initialX = 295.10m
**.loRaNodes[8].**.initialY = 1198.44m
**.loRaNodes[8].**.initialZ = 1.5m
**.loRaNodes[9].**.initialX = 110.58m
**.loRaNodes[9].**.initialY = -421.15m
**.loRaNodes[9].**.initialZ = 1.5m
# Nodes 30 - 39
**.loRaNodes[10].**.initialX = -924.68m
**.loRaNodes[10].**.initialY = 168.42m
**.loRaNodes[10].**.initialZ = 1.5m
**.loRaNodes[11].**.initialX = 1294.60m
**.loRaNodes[11].**.initialY = -716.41m
**.loRaNodes[11].**.initialZ = 1.5m
**.loRaNodes[12].**.initialX = 196.12m
**.loRaNodes[12].**.initialY = 1024.96m
**.loRaNodes[12].**.initialZ = 1.5m
**.loRaNodes[13].**.initialX = 1397.41m
# Nodes 40 - 49
**.loRaNodes[13].**.initialY = 1333.82m
**.loRaNodes[13].**.initialZ = 1.5m
**.loRaNodes[14].**.initialX = -623.87m
**.loRaNodes[14].**.initialY = 820.93m
**.loRaNodes[14].**.initialZ = 1.5m
**.loRaNodes[15].**.initialX = 1187.64m
**.loRaNodes[15].**.initialY = 1324.22m
**.loRaNodes[15].**.initialZ = 1.5m
**.loRaNodes[16].**.initialX = -1034.60m
**.loRaNodes[16].**.initialY = 1140.51m
# Nodes 50 - 59
**.loRaNodes[16].**.initialZ = 1.5m
**.loRaNodes[17].**.initialX = 65.61m
**.loRaNodes[17].**.initialY = -759.24m
**.loRaNodes[17].**.initialZ = 1.5m
**.loRaNodes[18].**.initialX = -252.83m
**.loRaNodes[18].**.initialY = 146.39m
**.loRaNodes[18].**.initialZ = 1.5m
**.loRaNodes[19].**.initialX = -692.44m
**.loRaNodes[19].**.initialY = 1181.80m
**.loRaNodes[19].**.initialZ = 1.5m
# Nodes 60 - 69
**.loRaNodes[20].**.initialX = -698.62m
**.loRaNodes[20].**.initialY = -1230.24m
**.loRaNodes[20].**.initialZ = 1.5m
**.loRaNodes[21].**.initialX = -425.59m
**.loRaNodes[21].**.initialY = 1070.87m
**.loRaNodes[21].**.initialZ = 1.5m
**.loRaNodes[22].**.initialX = -1134.13m
**.loRaNodes[22].**.initialY = -635.85m
**.loRaNodes[22].**.initialZ = 1.5m
**.loRaNodes[23].**.initialX = -1039.59m
# Nodes 70 - 79
**.loRaNodes[23].**.initialY = -1295.62m
**.loRaNodes[23].**.initialZ = 1.5m
**.loRaNodes[24].**.initialX = -192.21m
**.loRaNodes[24].**.initialY = 903.68m
**.loRaNodes[24].**.initialZ = 1.5m
**.loRaNodes[25].**.initialX = 709.83m
**.loRaNodes[25].**.initialY = 865.51m
**.loRaNodes[25].**.initialZ = 1.5m
**.loRaNodes[26].**.initialX = -604.16m
**.loRaNodes[26].**.initialY = 497.27m
# Nodes 80 - 89
**.loRaNodes[26].**.initialZ = 1.5m
**.loRaNodes[27].**.initialX = 1420.90m
**.loRaNodes[27].**.initialY = 1029.32m
**.loRaNodes[27].**.initialZ = 1.5m
**.loRaNodes[28].**.initialX = 732.67m
**.loRaNodes[28].**.initialY = 631.68m
**.loRaNodes[28].**.initialZ = 1.5m
**.loRaNodes[29].**.initialX = 1056.34m
**.loRaNodes[29].**.initialY = 703.35m
**.loRaNodes[29].**.initialZ = 1.5m
# Nodes 90 - 99
**.loRaNodes[30].**.initialX = 1488.74m
**.loRaNodes[30].**.initialY = 59.28m
**.loRaNodes[30].**.initialZ = 1.5m
**.loRaNodes[31].**.initialX = -182.69m
**.loRaNodes[31].**.initialY = 706.46m
**.loRaNodes[31].**.initialZ = 1.5m
**.loRaNodes[32].**.initialX = -33.24m
**.loRaNodes[32].**.initialY = -861.99m
**.loRaNodes[32].**.initialZ = 1.5m
**.loRaNodes[33].**.initialX = 888.93m
# Nodes 100 - 109
**.loRaNodes[33].**.initialY = -1012.97m
**.loRaNodes[33].**.initialZ = 1.5m
**.loRaNodes[34].**.initialX = 1471.31m
**.loRaNodes[34].**.initialY = -1274.26m
**.loRaNodes[34].**.initialZ = 1.5m
**.loRaNodes[35].**.initialX = -415.43m
**.loRaNodes[35].**.initialY = -767.75m
**.loRaNodes[35].**.initialZ = 1.5m
**.loRaNodes[36].**.initialX = -1295.28m
**.loRaNodes[36].**.initialY = -1075.29m
# Nodes 110 - 119
**.loRaNodes[36].**.initialZ = 1.5m
**.loRaNodes[37].**.initialX = 290.71m
**.loRaNodes[37].**.initialY = -221.19m
**.loRaNodes[37].**.initialZ = 1.5m
**.loRaNodes[38].**.initialX = 901.59m
**.loRaNodes[38].**.initialY = -737.97m
**.loRaNodes[38].**.initialZ = 1.5m
**.loRaNodes[39].**.initialX = -926.30m
**.loRaNodes[39].**.initialY = -109.63m
**.loRaNodes[39].**.initialZ = 1.5m
# Nodes 120 - 129
**.loRaNodes[40].**.initialX = 775.05m
**.loRaNodes[40].**.initialY = 783.37m
**.loRaNodes[40].**.initialZ = 1.5m
**.loRaNodes[41].**.initialX = -36.95m
**.loRaNodes[41].**.initialY = -737.37m
**.loRaNodes[41].**.initialZ = 1.5m
**.loRaNodes[42].**.initialX = -749.05m
**.loRaNodes[42].**.initialY = -1491.15m
**.loRaNodes[42].**.initialZ = 1.5m
**.loRaNodes[43].**.initialX = 958.78m
# Nodes 130 - 139
**.loRaNodes[43].**.initialY = 1147.69m
**.loRaNodes[43].**.initialZ = 1.5m
**.loRaNodes[44].**.initialX = 1131.41m
**.loRaNodes[44].**.initialY = -819.42m
**.loRaNodes[44].**.initialZ = 1.5m
**.loRaNodes[45].**.initialX = 892.49m
**.loRaNodes[45].**.initialY = 781.95m
**.loRaNodes[45].**.initialZ = 1.5m
**.loRaNodes[46].**.initialX = -339.90m
**.loRaNodes[46].**.initialY = 1353.19m
# Nodes 140 - 149
**.loRaNodes[46].**.initialZ = 1.5m
**.loRaNodes[47].**.initialX = 669.97m
**.loRaNodes[47].**.initialY = -1400.88m
**.loRaNodes[47].**.initialZ = 1.5m
**.loRaNodes[48].**.initialX = 1283.38m
**.loRaNodes[48].**.initialY = -85.29m
**.loRaNodes[48].**.initialZ = 1.5m
**.loRaNodes[49].**.initialX = 1102.06m
**.loRaNodes[49].**.initialY = -1194.15m
**.loRaNodes[49].**.initialZ = 1.5m
# Nodes 150 - 159
**.loRaNodes[50].**.initialX = -934.35m
**.loRaNodes[50].**.initialY = -606.88m
**.loRaNodes[50].**.initialZ = 1.5m
**.loRaNodes[51].**.initialX = -824.72m
**.loRaNodes[51].**.initialY = -1317.28m
**.loRaNodes[51].**.initialZ = 1.5m
**.loRaNodes[52].**.initialX = 985.67m
**.loRaNodes[52].**.initialY = 132.16m
**.loRaNodes[52].**.initialZ = 1.5m
**.loRaNodes[53].**.initialX = -525.61m
# Nodes 160 - 169
**.loRaNodes[53].**.initialY = -1268.45m
**.loRaNodes[53].**.initialZ = 1.5m
**.loRaNodes[54].**.initialX = 903.85m
**.loRaNodes[54].**.initialY = -86.77m
**.loRaNodes[54].**.initialZ = 1.5m
**.loRaNodes[55].**.initialX = 754.97m
**.loRaNodes[55].**.initialY = -297.28m
**.loRaNodes[55].**.initialZ = 1.5m
**.loRaNodes[56].**.initialX = 946.55m
**.loRaNodes[56].**.initialY = -690.69m
# Nodes 170 - 179
**.loRaNodes[56].**.initialZ = 1.5m
**.loRaNodes[57].**.initialX = -255.63m
**.loRaNodes[57].**.initialY = 1129.33m
**.loRaNodes[57].**.initialZ = 1.5m
**.loRaNodes[58].**.initialX = 191.11m
**.loRaNodes[58].**.initialY = 930.41m
**.loRaNodes[58].**.initialZ = 1.5m
**.loRaNodes[59].**.initialX = -395.06m
**.loRaNodes[59].**.initialY = -1270.37m
**.loRaNodes[59].**.initialZ = 1.5m
# Nodes 180 - 189
**.loRaNodes[60].**.initialX = 1146.09m
**.loRaNodes[60].**.initialY = -1365.19m
**.loRaNodes[60].**.initialZ = 1.5m
**.loRaNodes[61].**.initialX = 1415.83m
**.loRaNodes[61].**.initialY = 188.00m
**.loRaNodes[61].**.initialZ = 1.5m
**.loRaNodes[62].**.initialX = -188.01m
**.loRaNodes[62].**.initialY = -456.46m
**.loRaNodes[62].**.initialZ = 1.5m
**.loRaNodes[63].**.initialX = -1495.42m
# Nodes 190 - 199
**.loRaNodes[63].**.initialY = 1221.52m
**.loRaNodes[63].**.initialZ = 1.5m
**.loRaNodes[64].**.initialX = 1076.72m
**.loRaNodes[64].**.initialY = 74.38m
**.loRaNodes[64].**.initialZ = 1.5m
**.loRaNodes[65].**.initialX = 803.06m
**.loRaNodes[65].**.initialY = 509.71m
**.loRaNodes[65].**.initialZ = 1.5m
**.loRaNodes[66].**.initialX = 888.15m
**.loRaNodes[66].**.initialY = 1174.59m
# Nodes 200 - 209
**.loRaNodes[66].**.initialZ = 1.5m
**.loRaNodes[67].**.initialX = -95.60m
**.loRaNodes[67].**.initialY = -574.47m
**.loRaNodes[67].**.initialZ = 1.5m
**.loRaNodes[68].**.initialX = 168.23m
**.loRaNodes[68].**.initialY = -138.11m
**.loRaNodes[68].**.initialZ = 1.5m
**.loRaNodes[69].**.initialX = -292.05m
**.loRaNodes[69].**.initialY = 468.67m
**.loRaNodes[69].**.initialZ = 1.5m
# Nodes 210 - 219
**.loRaNodes[70].**.initialX = -1349.30m
**.loRaNodes[70].**.initialY = -1475.15m
**.loRaNodes[70].**.initialZ = 1.5m
**.loRaNodes[71].**.initialX = 364.84m
**.loRaNodes[71].**.initialY = -599.02m
**.loRaNodes[71].**.initialZ = 1.5m
**.loRaNodes[72].**.initialX = 746.32m
**.loRaNodes[72].**.initialY = 460.69m
**.loRaNodes[72].**.initialZ = 1.5m
**.loRaNodes[73].**.initialX = 603.59m
# Nodes 220 - 229
**.loRaNodes[73].**.initialY = -1308.57m
**.loRaNodes[73].**.initialZ = 1.5m
**.loRaNodes[74].**.initialX = 1421.11m
**.loRaNodes[74].**.initialY = 1163.90m
**.loRaNodes[74].**.initialZ = 1.5m
**.loRaNodes[75].**.initialX = 111.24m
**.loRaNodes[75].**.initialY = -1490.31m
**.loRaNodes[75].**.initialZ = 1.5m
**.loRaNodes[76].**.initialX = -209.63m
**.loRaNodes[76].**.initialY = -479.98m
# Nodes 230 - 239
**.loRaNodes[76].**.initialZ = 1.5m
**.loRaNodes[77].**.initialX = 663.09m
**.loRaNodes[77].**.initialY = -976.57m
**.loRaNodes[77].**.initialZ = 1.5m
**.loRaNodes[78].**.initialX = -975.95m
**.loRaNodes[78].**.initialY = 1022.79m
**.loRaNodes[78].**.initialZ = 1.5m
**.loRaNodes[79].**.initialX = 459.36m
**.loRaNodes[79].**.initialY = -851.42m
**.loRaNodes[79].**.initialZ = 1.5m
# Nodes 240 - 249
**.loRaNodes[80].**.initialX = -1300.81m
**.loRaNodes[80].**.initialY = 1321.19m
**.loRaNodes[80].**.initialZ = 1.5m
**.loRaNodes[81].**.initialX = 1446.07m
**.loRaNodes[81].**.initialY = -802.49m
**.loRaNodes[81].**.initialZ = 1.5m
**.loRaNodes[82].**.initialX = -554.32m
**.loRaNodes[82].**.initialY = 93.16m
**.loRaNodes[82].**.initialZ = 1.5m
**.loRaNodes[83].**.initialX = 790.10m
# Nodes 250 - 259
**.loRaNodes[83].**.initialY = 952.70m
**.loRaNodes[83].**.initialZ = 1.5m
**.loRaNodes[84].**.initialX = -459.64m
**.loRaNodes[84].**.initialY = -826.61m
**.loRaNodes[84].**.initialZ = 1.5m
**.loRaNodes[85].**.initialX = -225.56m
**.loRaNodes[85].**.initialY = -162.64m
**.loRaNodes[85].**.initialZ = 1.5m
**.loRaNodes[86].**.initialX = 802.95m
**.loRaNodes[86].**.initialY = -797.88m
# Nodes 260 - 269
**.loRaNodes[86].**.initialZ = 1.5m
**.loRaNodes[87].**.initialX = 191.40m
**.loRaNodes[87].**.initialY = 288.68m
**.loRaNodes[87].**.initialZ = 1.5m
**.loRaNodes[88].**.initialX = -1480.20m
**.loRaNodes[88].**.initialY = -570.09m
**.loRaNodes[88].**.initialZ = 1.5m
**.loRaNodes[89].**.initialX = -228.32m
**.loRaNodes[89].**.initialY = -34.05m
**.loRaNodes[89].**.initialZ = 1.5m
# Nodes 270 - 279
**.loRaNodes[90].**.initialX = -1420.98m
**.loRaNodes[90].**.initialY = 127.64m
**.loRaNodes[90].**.initialZ = 1.5m
**.loRaNodes[91].**.initialX = 1356.28m
**.loRaNodes[91].**.initialY = -1344.10m
**.loRaNodes[91].**.initialZ = 1.5m
**.loRaNodes[92].**.initialX = -629.61m
**.loRaNodes[92].**.initialY = 1145.53m
**.loRaNodes[92].**.initialZ = 1.5m
**.loRaNodes[93].**.initialX = -1179.33m
# Nodes 280 - 289
**.loRaNodes[93].**.initialY = 1211.96m
**.loRaNodes[93].**.initialZ = 1.5m
**.loRaNodes[94].**.initialX = -1474.48m
**.loRaNodes[94].**.initialY = 991.39m
**.loRaNodes[94].**.initialZ = 1.5m
**.loRaNodes[95].**.initialX = -298.27m
**.loRaNodes[95].**.initialY = -612.26m
**.loRaNodes[95].**.initialZ = 1.5m
**.loRaNodes[96].**.initialX = 1419.41m
**.loRaNodes[96].**.initialY = 766.13m
# Nodes 290 - 299
**.loRaNodes[96].**.initialZ = 1.5m
**.loRaNodes[97].**.initialX = -135.80m
**.loRaNodes[97].**.initialY = 50.73m
**.loRaNodes[97].**.initialZ = 1.5m
**.loRaNodes[98].**.initialX = 824.23m
**.loRaNodes[98].**.initialY = -608.92m
**.loRaNodes[98].**.initialZ = 1.5m
**.loRaNodes[99].**.initialX = 431.93m
**.loRaNodes[99].**.initialY = 757.20m
**.loRaNodes[99].**.initialZ = 1.5m
# Nodes 300 - 309
**.loRaNodes[100].**.initialX = -1177.17m
**.loRaNodes[100].**.initialY = 1196.20m
**.loRaNodes[100].**.initialZ = 1.5m
**.loRaNodes[101].**.initialX = 1475.64m
**.loRaNodes[101].**.initialY = 759.84m
**.loRaNodes[101].**.initialZ = 1.5m
**.loRaNodes[102].**.initialX = 950.12m
**.loRaNodes[102].**.initialY = 282.14m
**.loRaNodes[102].**.initialZ = 1.5m
**.loRaNodes[103].**.initialX = 381.36m
# Nodes 310 - 319
**.loRaNodes[103].**.initialY = -468.55m
**.loRaNodes[103].**.initialZ = 1.5m
**.loRaNodes[104].**.initialX = 101.27m
**.loRaNodes[104].**.initialY = -184.54m
**.loRaNodes[104].**.initialZ = 1.5m
**.loRaNodes[105].**.initialX = -980.35m
**.loRaNodes[105].**.initialY = 231.50m
**.loRaNodes[105].**.initialZ = 1.5m
**.loRaNodes[106].**.initialX = -81.03m
**.loRaNodes[106].**.initialY = -572.54m
# Nodes 320 - 329
**.loRaNodes[106].**.initialZ = 1.5m
**.loRaNodes[107].**.initialX = 10.90m
**.loRaNodes[107].**.initialY = -1439.58m
**.loRaNodes[107].**.initialZ = 1.5m
**.loRaNodes[108].**.initialX = -985.70m
**.loRaNodes[108].**.initialY = 1418.59m
**.loRaNodes[108].**.initialZ = 1.5m
**.loRaNodes[109].**.initialX = 1025.57m
**.loRaNodes[109].**.initialY = -1044.76m
**.loRaNodes[109].**.initialZ = 1.5m
# Nodes 330 - 339
**.loRaNodes[110].**.initialX = 101.98m
**.loRaNodes[110].**.initialY = 1035.44m
**.loRaNodes[110].**.initialZ = 1.5m
**.loRaNodes[111].**.initialX = 1288.11m
**.loRaNodes[111].**.initialY = 1182.43m
**.loRaNodes[111].**.initialZ = 1.5m
**.loRaNodes[112].**.initialX = -1181.53m
**.loRaNodes[112].**.initialY = 899.76m
**.loRaNodes[112].**.initialZ = 1.5m
**.loRaNodes[113].**.initialX = 1055.95m
# Nodes 340 - 349
**.loRaNodes[113].**.initialY = 383.76m
**.loRaNodes[113].**.initialZ = 1.5m
**.loRaNodes[114].**.initialX = 816.35m
**.loRaNodes[114].**.initialY = 934.88m
**.loRaNodes[114].**.initialZ = 1.5m
**.loRaNodes[115].**.initialX = 608.95m
**.loRaNodes[115].**.initialY = 190.62m
**.loRaNodes[115].**.initialZ = 1.5m
**.loRaNodes[116].**.initialX = 190.19m
**.loRaNodes[116].**.initialY = -223.14m
# Nodes 350 - 359
**.loRaNodes[116].**.initialZ = 1.5m
**.loRaNodes[117].**.initialX = -527.02m
**.loRaNodes[117].**.initialY = 197.52m
**.loRaNodes[117].**.initialZ = 1.5m
**.loRaNodes[118].**.initialX = 450.02m
**.loRaNodes[118].**.initialY = -681.29m
**.loRaNodes[118].**.initialZ = 1.5m
**.loRaNodes[119].**.initialX = -374.42m
**.loRaNodes[119].**.initialY = 510.70m
**.loRaNodes[119].**.initialZ = 1.5m
# Nodes 360 - 369
**.loRaNodes[120].**.initialX = 367.11m
**.loRaNodes[120].**.initialY = 653.71m
**.loRaNodes[120].**.initialZ = 1.5m
**.loRaNodes[121].**.initialX = -1207.67m
**.loRaNodes[121].**.initialY = -870.20m
**.loRaNodes[121].**.initialZ = 1.5m
**.loRaNodes[122].**.initialX = -425.04m
**.loRaNodes[122].**.initialY = 381.49m
**.loRaNodes[122].**.initialZ = 1.5m
**.loRaNodes[123].**.initialX = 1425.50m
# Nodes 370 - 379
**.loRaNodes[123].**.initialY = 1487.97m
**.loRaNodes[123].**.initialZ = 1.5m
**.loRaNodes[124].**.initialX = 499.53m
**.loRaNodes[124].**.initialY = -808.50m
**.loRaNodes[124].**.initialZ = 1.5m
**.loRaNodes[125].**.initialX = 1319.52m
**.loRaNodes[125].**.initialY = -617.06m
**.loRaNodes[125].**.initialZ = 1.5m
**.loRaNodes[126].**.initialX = -186.56m
**.loRaNodes[126].**.initialY = 1099.52m
# Nodes 380 - 389
**.loRaNodes[126].**.initialZ = 1.5m
**.loRaNodes[127].**.initialX = -985.36m
**.loRaNodes[127].**.initialY = 668.88m
**.loRaNodes[127].**.initialZ = 1.5m
**.loRaNodes[128].**.initialX = -975.13m
**.loRaNodes[128].**.initialY = 391.73m
**.loRaNodes[128].**.initialZ = 1.5m
**.loRaNodes[129].**.initialX = 1494.41m
**.loRaNodes[129].**.initialY = -80.84m
**.loRaNodes[129].**.initialZ = 1.5m
# Nodes 390 - 399
**.loRaNodes[130].**.initialX = 1421.18m
**.loRaNodes[130].**.initialY = -1211.02m
**.loRaNodes[130].**.initialZ = 1.5m
**.loRaNodes[131].**.initialX = 309.49m
**.loRaNodes[131].**.initialY = 252.10m
**.loRaNodes[131].**.initialZ = 1.5m
**.loRaNodes[132].**.initialX = 628.55m
**.loRaNodes[132].**.initialY = -59.54m
**.loRaNodes[132].**.initialZ = 1.5m
**.loRaNodes[133].**.initialX = 846.11m
# Nodes 400 - 409
**.loRaNodes[133].**.initialY = -241.97m
**.loRaNodes[133].**.initialZ = 1.5m
**.loRaNodes[134].**.initialX = -366.29m
**.loRaNodes[134].**.initialY = -784.11m
**.loRaNodes[134].**.initialZ = 1.5m
**.loRaNodes[135].**.initialX = 98.82m
**.loRaNodes[135].**.initialY = -1090.71m
**.loRaNodes[135].**.initialZ = 1.5m
**.loRaNodes[136].**.initialX = -220.46m
**.loRaNodes[136].**.initialY = 1474.36m
# Nodes 410 - 419
**.loRaNodes[136].**.initialZ = 1.5m
**.loRaNodes[137].**.initialX = 1052.62m
**.loRaNodes[137].**.initialY = 593.08m
**.loRaNodes[137].**.initialZ = 1.5m
**.loRaNodes[138].**.initialX = 809.77m
**.loRaNodes[138].**.initialY = -1245.51m
**.loRaNodes[138].**.initialZ = 1.5m
**.loRaNodes[139].**.initialX = -1451.34m
**.loRaNodes[139].**.initialY = -865.26m
**.loRaNodes[139].**.initialZ = 1.5m
# Nodes 420 - 429
**.loRaNodes[140].**.initialX = 98.58m
**.loRaNodes[140].**.initialY = 7.99m
**.loRaNodes[140].**.initialZ = 1.5m
**.loRaNodes[141].**.initialX = -1234.89m
**.loRaNodes[141].**.initialY = -764.11m
**.loRaNodes[141].**.initialZ = 1.5m
**.loRaNodes[142].**.initialX = 187.43m
**.loRaNodes[142].**.initialY = 1308.40m
**.loRaNodes[142].**.initialZ = 1.5m
**.loRaNodes[143].**.initialX = -760.65m
# Nodes 430 - 439
**.loRaNodes[143].**.initialY = 1382.07m
**.loRaNodes[143].**.initialZ = 1.5m
**.loRaNodes[144].**.initialX = -133.15m
**.loRaNodes[144].**.initialY = -606.51m
**.loRaNodes[144].**.initialZ = 1.5m
**.loRaNodes[145].**.initialX = 1290.71m
**.loRaNodes[145].**.initialY = 414.57m
**.loRaNodes[145].**.initialZ = 1.5m
**.loRaNodes[146].**.initialX = -106.02m
**.loRaNodes[146].**.initialY = -913.49m
# Nodes 440 - 449
**.loRaNodes[146].**.initialZ = 1.5m
**.loRaNodes[147].**.initialX = 60.84m
**.loRaNodes[147].**.initialY = 1202.03m
**.loRaNodes[147].**.initialZ = 1.5m
**.loRaNodes[148].**.initialX = -989.04m
**.loRaNodes[148].**.initialY = 1053.79m
**.loRaNodes[148].**.initialZ = 1.5m
**.loRaNodes[149].**.initialX = 1039.95m
**.loRaNodes[149].**.initialY = -50.80m
**.loRaNodes[149].**.initialZ = 1.5m
# Nodes 450 - 459
**.loRaNodes[150].**.initialX = 1172.20m
**.loRaNodes[150].**.initialY = 514.58m
**.loRaNodes[150].**.initialZ = 1.5m
**.loRaNodes[151].**.initialX = -521.28m
**.loRaNodes[151].**.initialY = -1165.35m
**.loRaNodes[151].**.initialZ = 1.5m
**.loRaNodes[152].**.initialX = -1194.54m
**.loRaNodes[152].**.initialY = 321.15m
**.loRaNodes[152].**.initialZ = 1.5m
**.loRaNodes[153].**.initialX = -269.39m
# Nodes 460 - 469
**.loRaNodes[153].**.initialY = 1434.21m
**.loRaNodes[153].**.initialZ = 1.5m
**.loRaNodes[154].**.initialX = -392.70m
**.loRaNodes[154].**.initialY = 701.50m
**.loRaNodes[154].**.initialZ = 1.5m
**.loRaNodes[155].**.initialX = 600.04m
**.loRaNodes[155].**.initialY = -1198.58m
**.loRaNodes[155].**.initialZ = 1.5m
**.loRaNodes[156].**.initialX = -653.38m
**.loRaNodes[156].**.initialY = 51.84m
# Nodes 470 - 479
**.loRaNodes[156].**.initialZ = 1.5m
**.loRaNodes[157].**.initialX = 1358.67m
**.loRaNodes[157].**.initialY = 780.28m
**.loRaNodes[157].**.initialZ = 1.5m
**.loRaNodes[158].**.initialX = 135.16m
**.loRaNodes[158].**.initialY = -976.05m
**.loRaNodes[158].**.initialZ = 1.5m
**.loRaNodes[159].**.initialX = -464.75m
**.loRaNodes[159].**.initialY = -1269.02m
**.loRaNodes[159].**.initialZ = 1.5m
# Nodes 480 - 489
**.loRaNodes[160].**.initialX = 566.52m
**.loRaNodes[160].**.initialY = -1078.79m
**.loRaNodes[160].**.initialZ = 1.5m
**.loRaNodes[161].**.initialX = 292.53m
**.loRaNodes[161].**.initialY = 1033.01m
**.loRaNodes[161].**.initialZ = 1.5m
**.loRaNodes[162].**.initialX = 986.64m
**.loRaNodes[162].**.initialY = 176.59m
**.loRaNodes[162].**.initialZ = 1.5m
**.loRaNodes[163].**.initialX = -61.00m
# Nodes 490 - 499
**.loRaNodes[163].**.initialY = 480.35m
**.loRaNodes[163].**.initialZ = 1.5m
**.loRaNodes[164].**.initialX = 644.23m
**.loRaNodes[164].**.initialY = 1228.49m
**.loRaNodes[164].**.initialZ = 1.5m
**.loRaNodes[165].**.initialX = -1351.35m
**.loRaNodes[165].**.initialY = 1079.99m
**.loRaNodes[165].**.initialZ = 1.5m
**.loRaNodes[166].**.initialX = 585.76m
**.loRaNodes[166].**.initialY = 581.88m
# Nodes 500 - 509
**.loRaNodes[166].**.initialZ = 1.5m
**.loRaNodes[167].**.initialX = -667.23m
**.loRaNodes[167].**.initialY = -503.90m
**.loRaNodes[167].**.initialZ = 1.5m
**.loRaNodes[168].**.initialX = -781.01m
**.loRaNodes[168].**.initialY = 1039.84m
**.loRaNodes[168].**.initialZ = 1.5m
**.loRaNodes[169].**.initialX = -1241.24m
**.loRaNodes[169].**.initialY = -418.24m
**.loRaNodes[169].**.initialZ = 1.5m
# Nodes 510 - 519
**.loRaNodes[170].**.initialX = -690.31m
**.loRaNodes[170].**.initialY = -27.16m
**.loRaNodes[170].**.initialZ = 1.5m
**.loRaNodes[171].**.initialX = -506.16m
**.loRaNodes[171].**.initialY = 660.95m
**.loRaNodes[171].**.initialZ = 1.5m
**.loRaNodes[172].**.initialX = -324.29m
**.loRaNodes[172].**.initialY = -1290.11m
**.loRaNodes[172].**.initialZ = 1.5m
**.loRaNodes[173].**.initialX = -24.31m
# Nodes 520 - 529
**.loRaNodes[173].**.initialY = 1438.66m
**.loRaNodes[173].**.initialZ = 1.5m
**.loRaNodes[174].**.initialX = 361.18m
**.loRaNodes[174].**.initialY = 1366.25m
**.loRaNodes[174].**.initialZ = 1.5m
**.loRaNodes[175].**.initialX = 227.88m
**.loRaNodes[175].**.initialY = 805.10m
**.loRaNodes[175].**.initialZ = 1.5m
**.loRaNodes[176].**.initialX = 940.43m
**.loRaNodes[176].**.initialY = -944.43m
# Nodes 530 - 539
**.loRaNodes[176].**.initialZ = 1.5m
**.loRaNodes[177].**.initialX = -654.91m
**.loRaNodes[177].**.initialY = 362.82m
**.loRaNodes[177].**.initialZ = 1.5m
**.loRaNodes[178].**.initialX = -589.29m
**.loRaNodes[178].**.initialY = -439.46m
**.loRaNodes[178].**.initialZ = 1.5m
**.loRaNodes[179].**.initialX = 1125.39m
**.loRaNodes[179].**.initialY = 473.08m
**.loRaNodes[179].**.initialZ = 1.5m
# Nodes 540 - 549
**.loRaNodes[180].**.initialX = 1021.89m
**.loRaNodes[180].**.initialY = 1240.68m
**.loRaNodes[180].**.initialZ = 1.5m
**.loRaNodes[181].**.initialX = -643.60m
**.loRaNodes[181].**.initialY = -120.09m
**.loRaNodes[181].**.initialZ = 1.5m
**.loRaNodes[182].**.initialX = 582.92m
**.loRaNodes[182].**.initialY = 649.73m
**.loRaNodes[182].**.initialZ = 1.5m
**.loRaNodes[183].**.initialX = -339.24m
# Nodes 550 - 559
**.loRaNodes[183].**.initialY = -1205.02m
**.loRaNodes[183].**.initialZ = 1.5m
**.loRaNodes[184].**.initialX = -73.74m
**.loRaNodes[184].**.initialY = -96.57m
**.loRaNodes[184].**.initialZ = 1.5m
**.loRaNodes[185].**.initialX = 414.89m
**.loRaNodes[185].**.initialY = -524.07m
**.loRaNodes[185].**.initialZ = 1.5m
**.loRaNodes[186].**.initialX = -942.75m
**.loRaNodes[186].**.initialY = -255.45m
# Nodes 560 - 569
**.loRaNodes[186].**.initialZ = 1.5m
**.loRaNodes[187].**.initialX = -357.50m
**.loRaNodes[187].**.initialY = -513.82m
**.loRaNodes[187].**.initialZ = 1.5m
**.loRaNodes[188].**.initialX = 1450.71m
**.loRaNodes[188].**.initialY = 893.14m
**.loRaNodes[188].**.initialZ = 1.5m
**.loRaNodes[189].**.initialX = -104.91m
**.loRaNodes[189].**.initialY = 1381.64m
**.loRaNodes[189].**.initialZ = 1.5m
# Nodes 570 - 579
**.loRaNodes[190].**.initialX = 777.49m
**.loRaNodes[190].**.initialY = -1241.32m
**.loRaNodes[190].**.initialZ = 1.5m
**.loRaNodes[191].**.initialX = 661.11m
**.loRaNodes[191].**.initialY = -93.67m
**.loRaNodes[191].**.initialZ = 1.5m
**.loRaNodes[192].**.initialX = 438.07m
**.loRaNodes[192].**.initialY = 1476.63m
**.loRaNodes[192].**.initialZ = 1.5m
**.loRaNodes[193].**.initialX = -1241.89m
# Nodes 580 - 589
**.loRaNodes[193].**.initialY = -934.67m
**.loRaNodes[193].**.initialZ = 1.5m
**.loRaNodes[194].**.initialX = -384.49m
**.loRaNodes[194].**.initialY = -425.27m
**.loRaNodes[194].**.initialZ = 1.5m
**.loRaNodes[195].**.initialX = 101.67m
**.loRaNodes[195].**.initialY = -1073.40m
**.loRaNodes[195].**.initialZ = 1.5m
**.loRaNodes[196].**.initialX = 1251.79m
**.loRaNodes[196].**.initialY = -954.26m
# Nodes 590 - 599
**.loRaNodes[196].**.initialZ = 1.5m
**.loRaNodes[197].**.initialX = 486.03m
**.loRaNodes[197].**.initialY = 246.90m
**.loRaNodes[197].**.initialZ = 1.5m
**.loRaNodes[198].**.initialX = 1071.98m
**.loRaNodes[198].**.initialY = 1412.58m
**.loRaNodes[198].**.initialZ = 1.5m
**.loRaNodes[199].**.initialX = 167.45m
**.loRaNodes[199].**.initialY = -11.57m
**.loRaNodes[199].**.initialZ = 1.5m

# Position data loaded from: omnet_positions/08_multigw_1gw_positions.ini
# Total devices: 600, Gateways: 1

#================================================================================
# SCENARIO 08 CONFIGURATION NOTES
#================================================================================
# Multi-Gateway Performance with 1 gateway configuration (baseline)
#
# This baseline template will be processed by gen_omnet_scenarios.py to create
# multiple sub-scenario configurations with different parameter combinations.
#
# Key scenario 08 parameters:
# - Initial SF: 10 (DR2)
# - Initial TP: 14 dBm  
# - Packet interval: 600s (10 minutes)
# - Simulation time: 400 minutes
# - Path loss sigma: 3.5 dB
# - Devices: 100, Gateways: 1
# Appended by generator (initial SF)
**.loRaNodes[*].**initialLoRaSF = 10